 &PTRACERS_PARM01
 PTRACERS_numInUse=25,
 PTRACERS_Iter0= 0,
#
 PTRACERS_advScheme=25*33,
 PTRACERS_diffKh=25*0.E3,
 PTRACERS_diffKr=25*1.E-5,
 PTRACERS_useGMRedi=25*.TRUE.,
 PTRACERS_useKPP=25*.TRUE.,
#
 PTRACERS_names(1)= 'DIC',
 PTRACERS_names(2)= 'NH4',
 PTRACERS_names(3)= 'NO2',
 PTRACERS_names(4)= 'NO3',
 PTRACERS_names(5)= 'PO4',
 PTRACERS_names(6)= 'SiO2',
 PTRACERS_names(7)= 'FeT',
 PTRACERS_names(8)= 'DOC',
 PTRACERS_names(9)= 'DON',
 PTRACERS_names(10)= 'DOP',
 PTRACERS_names(11)= 'DOFe',
 PTRACERS_names(12)= 'POC',
 PTRACERS_names(13)= 'PON',
 PTRACERS_names(14)= 'POP',
 PTRACERS_names(15)= 'POSi',
 PTRACERS_names(16)= 'POFe',
 PTRACERS_names(17)= 'PIC',
 PTRACERS_names(18)= 'ALK',
 PTRACERS_names(19)= 'O2',
 PTRACERS_names(20)= 'c01',
 PTRACERS_names(21)= 'c02',
 PTRACERS_names(22)= 'c03',
 PTRACERS_names(23)= 'c04',
 PTRACERS_names(24)= 'Chl1',
 PTRACERS_names(25)= 'Chl2',
 PTRACERS_long_names(20)= 'Euk01',
 PTRACERS_long_names(21)= 'Syn01',
 PTRACERS_long_names(22)= 'Zoo01',
 PTRACERS_long_names(23)= 'Zoo02',
 PTRACERS_units(1)='mmol C/m^3',
 PTRACERS_units(2)='mmol N/m^3',
 PTRACERS_units(3)='mmol N/m^3',
 PTRACERS_units(4)='mmol N/m^3',
 PTRACERS_units(5)='mmol P/m^3',
 PTRACERS_units(6)='mmol Si/m^3',
 PTRACERS_units(7)='mmol Fe/m^3',
 PTRACERS_units(8)='mmol C/m^3',
 PTRACERS_units(9)='mmol N/m^3',
 PTRACERS_units(10)='mmol P/m^3',
 PTRACERS_units(11)='mmol Fe/m^3',
 PTRACERS_units(12)='mmol C/m^3',
 PTRACERS_units(13)='mmol N/m^3',
 PTRACERS_units(14)='mmol P/m^3',
 PTRACERS_units(15)='mmol Si/m^3',
 PTRACERS_units(16)='mmol Fe/m^3',
 PTRACERS_units(17)='mmol C/m^3',
 PTRACERS_units(18)='mmol eq/m^3',
 PTRACERS_units(19)='mmol O/m^3',
 PTRACERS_units(20:23)=4*'mmol C/m^3',
 PTRACERS_units(24:25)='mg/m^3',
 PTRACERS_initialFile(1)='/lustre/isaac/proj/UTK0105/Darwin/data/eccov3_R8/glodap_tco2_ann-3d.bin',
 PTRACERS_initialFile(2)='/lustre/isaac/proj/UTK0105/Darwin/data/DARWIN_ECCO_run17_R8/nh4_y2000.data',
 PTRACERS_initialFile(3)='/lustre/isaac/proj/UTK0105/Darwin/data/DARWIN_ECCO_run17_R8/no2_y2000.data',
 PTRACERS_initialFile(4)='/lustre/isaac/proj/UTK0105/Darwin/data/eccov3_R8/lev01_nitrate_ann-3d.bin',
 PTRACERS_initialFile(5)='/lustre/isaac/proj/UTK0105/Darwin/data/eccov3_R8/lev01_phosphate_ann-3d.bin',
 PTRACERS_initialFile(6)='/lustre/isaac/proj/UTK0105/Darwin/data/eccov3_R8/lev01_silicate_ann-3d.bin ',
 PTRACERS_initialFile(7)='/lustre/isaac/proj/UTK0105/Darwin/data/DARWIN_ECCO_run17_R8/fet_y2000.data',
 PTRACERS_initialFile(8)='/lustre/isaac/proj/UTK0105/Darwin/data/DARWIN_ECCO_run17_R8/doc_y2000.data',
 PTRACERS_initialFile(9)='/lustre/isaac/proj/UTK0105/Darwin/data/DARWIN_ECCO_run17_R8/don_y2000.data',
 PTRACERS_initialFile(10)='/lustre/isaac/proj/UTK0105/Darwin/data/DARWIN_ECCO_run17_R8/dop_y2000.data',
 PTRACERS_initialFile(11)='/lustre/isaac/proj/UTK0105/Darwin/data/DARWIN_ECCO_run17_R8/dofe_y2000.data',
 PTRACERS_initialFile(12)='/lustre/isaac/proj/UTK0105/Darwin/data/DARWIN_ECCO_run17_R8/poc_y2000.data',
 PTRACERS_initialFile(13)='/lustre/isaac/proj/UTK0105/Darwin/data/DARWIN_ECCO_run17_R8/pon_y2000.data',
 PTRACERS_initialFile(14)='/lustre/isaac/proj/UTK0105/Darwin/data/DARWIN_ECCO_run17_R8/pop_y2000.data',
 PTRACERS_initialFile(15)='/lustre/isaac/proj/UTK0105/Darwin/data/DARWIN_ECCO_run17_R8/posi_y2000.data',
 PTRACERS_initialFile(16)='/lustre/isaac/proj/UTK0105/Darwin/data/DARWIN_ECCO_run17_R8/pofe_y2000.data',
 PTRACERS_initialFile(17)='/lustre/isaac/proj/UTK0105/Darwin/data/DARWIN_ECCO_run17_R8/pic_y2000.data',
 PTRACERS_initialFile(18)='/lustre/isaac/proj/UTK0105/Darwin/data/eccov3_R8/glodap_alk_ann-3d.bin',
 PTRACERS_initialFile(19)='/lustre/isaac/proj/UTK0105/Darwin/data/eccov3_R8/lev01_oxygen_micromolar_ann-3d.bin',
 PTRACERS_initialFile(20)='/lustre/isaac/proj/UTK0105/Darwin/data/DARWIN_ECCO_run17_R8/phy_6species_x120_y2000.data',
 PTRACERS_initialFile(21)='/lustre/isaac/proj/UTK0105/Darwin/data/DARWIN_ECCO_run17_R8/phy_6species_x120_y2000.data',
 PTRACERS_initialFile(22:23)=2*'/lustre/isaac/proj/UTK0105/Darwin/data/DARWIN_ECCO_run17_R8/zoop_x120_y2000.data',
 PTRACERS_initialFile(24:25)=2*' ',
 &
